12182
 OpenBabel06012511153D

 13 12  0  0  0  0  0  0  0  0999 V2000
   -0.6601   -0.1835   -0.6965 O   0  0  0  0  0  0  0  0  0  0  0  0
    0.7083   -1.7414    0.3310 O   0  0  0  0  0  0  0  0  0  0  0  0
   -1.8471   -0.2789    0.0977 C   0  0  0  0  0  0  0  0  0  0  0  0
   -2.4345    1.1050    0.2748 C   0  0  0  0  0  0  0  0  0  0  0  0
    0.4793   -0.6198   -0.0962 C   0  0  0  0  0  0  0  0  0  0  0  0
    1.4653    0.4246    0.0031 C   0  0  0  0  0  0  0  0  0  0  0  0
    2.2888    1.2941    0.0860 C   0  0  0  0  0  0  0  0  0  0  0  0
   -2.5542   -0.9227   -0.4351 H   0  0  0  0  0  0  0  0  0  0  0  0
   -1.6441   -0.7307    1.0760 H   0  0  0  0  0  0  0  0  0  0  0  0
   -3.3616    1.0647    0.8533 H   0  0  0  0  0  0  0  0  0  0  0  0
   -1.7255    1.7616    0.7898 H   0  0  0  0  0  0  0  0  0  0  0  0
   -2.6442    1.5630   -0.6974 H   0  0  0  0  0  0  0  0  0  0  0  0
    3.0191    2.0657    0.1595 H   0  0  0  0  0  0  0  0  0  0  0  0
  1  3  1  0  0  0  0
  1  5  1  0  0  0  0
  2  5  2  0  0  0  0
  3  4  1  0  0  0  0
  3  8  1  0  0  0  0
  3  9  1  0  0  0  0
  4 10  1  0  0  0  0
  4 11  1  0  0  0  0
  4 12  1  0  0  0  0
  5  6  1  0  0  0  0
  6  7  3  0  0  0  0
  7 13  1  0  0  0  0
M  END
