12182
 OpenBabel06012511153D

 13 12  0  0  0  0  0  0  0  0999 V2000
   -0.5174   -0.6564    0.3792 O   0  0  0  0  0  0  0  0  0  0  0  0
    0.1108    1.5394    0.0058 O   0  0  0  0  0  0  0  0  0  0  0  0
   -1.8763   -0.2493    0.5702 C   0  0  0  0  0  0  0  0  0  0  0  0
   -2.5914   -0.2765   -0.7638 C   0  0  0  0  0  0  0  0  0  0  0  0
    0.3583    0.3469    0.1047 C   0  0  0  0  0  0  0  0  0  0  0  0
    1.6988   -0.1469   -0.0738 C   0  0  0  0  0  0  0  0  0  0  0  0
    2.8172   -0.5570   -0.2222 C   0  0  0  0  0  0  0  0  0  0  0  0
   -2.3374   -0.9698    1.2535 H   0  0  0  0  0  0  0  0  0  0  0  0
   -1.9443    0.7363    1.0445 H   0  0  0  0  0  0  0  0  0  0  0  0
   -3.6488   -0.0247   -0.6426 H   0  0  0  0  0  0  0  0  0  0  0  0
   -2.1419    0.4339   -1.4651 H   0  0  0  0  0  0  0  0  0  0  0  0
   -2.5159   -1.2679   -1.2228 H   0  0  0  0  0  0  0  0  0  0  0  0
    3.8094   -0.9209   -0.3539 H   0  0  0  0  0  0  0  0  0  0  0  0
  1  3  1  0  0  0  0
  1  5  1  0  0  0  0
  2  5  2  0  0  0  0
  3  4  1  0  0  0  0
  3  8  1  0  0  0  0
  3  9  1  0  0  0  0
  4 10  1  0  0  0  0
  4 11  1  0  0  0  0
  4 12  1  0  0  0  0
  5  6  1  0  0  0  0
  6  7  3  0  0  0  0
  7 13  1  0  0  0  0
M  END
