12182
 OpenBabel06012511153D

 13 12  0  0  0  0  0  0  0  0999 V2000
   -0.6600   -0.1830    0.6963 O   0  0  0  0  0  0  0  0  0  0  0  0
    0.7081   -1.7413   -0.3308 O   0  0  0  0  0  0  0  0  0  0  0  0
   -1.8475   -0.2790   -0.0972 C   0  0  0  0  0  0  0  0  0  0  0  0
   -2.4350    1.1047   -0.2750 C   0  0  0  0  0  0  0  0  0  0  0  0
    0.4792   -0.6194    0.0957 C   0  0  0  0  0  0  0  0  0  0  0  0
    1.4658    0.4243   -0.0027 C   0  0  0  0  0  0  0  0  0  0  0  0
    2.2893    1.2937   -0.0862 C   0  0  0  0  0  0  0  0  0  0  0  0
   -1.6449   -0.7315   -1.0752 H   0  0  0  0  0  0  0  0  0  0  0  0
   -2.5541   -0.9224    0.4364 H   0  0  0  0  0  0  0  0  0  0  0  0
   -3.3624    1.0640   -0.8530 H   0  0  0  0  0  0  0  0  0  0  0  0
   -2.6442    1.5635    0.6970 H   0  0  0  0  0  0  0  0  0  0  0  0
   -1.7263    1.7610   -0.7908 H   0  0  0  0  0  0  0  0  0  0  0  0
    3.0197    2.0652   -0.1603 H   0  0  0  0  0  0  0  0  0  0  0  0
  1  3  1  0  0  0  0
  1  5  1  0  0  0  0
  2  5  2  0  0  0  0
  3  4  1  0  0  0  0
  3  8  1  0  0  0  0
  3  9  1  0  0  0  0
  4 10  1  0  0  0  0
  4 11  1  0  0  0  0
  4 12  1  0  0  0  0
  5  6  1  0  0  0  0
  6  7  3  0  0  0  0
  7 13  1  0  0  0  0
M  END
